/*--------------------------------*- C++ -*----------------------------------*\
| =========                 |                                                 |
| \\      /  F ield         | OpenFOAM: The Open Source CFD Toolbox           |
|  \\    /   O peration     | Version:  v1912                                 |
|   \\  /    A nd           | Website:  www.openfoam.com                      |
|    \\/     M anipulation  |                                                 |
\*---------------------------------------------------------------------------*/
FoamFile
{
    version     2.0;
    format      ascii;
    class       polyBoundaryMesh;
    location    "constant/wallFilmRegion/polyMesh";
    object      boundary;
}
// * * * * * * * * * * * * * * * * * * * * * * * * * * * * * * * * * * * * * //

4
(
    back
    {
        type            empty;
        inGroups        1(empty);
        nFaces          360;
        startFace       360;
    }
    front
    {
        type            empty;
        inGroups        1(empty);
        nFaces          360;
        startFace       720;
    }
    wallFilmFaces_top
    {
        type            patch;
        nFaces          360;
        startFace       1080;
    }
    region0_to_wallFilmRegion_wallFilmFaces
    {
        type            mappedWall;
        inGroups        1(wall);
        nFaces          360;
        startFace       1440;
        sampleMode      nearestPatchFace;
        sampleRegion    region0;
        samplePatch     region0_to_wallFilmRegion_wallFilmFaces;
        offsetMode      nonuniform;
        offsets         nonuniform List<vector> 
360
(
(5.551115123125783e-17 0 0)
(0 -8.673617379884035e-19 1.387778780781446e-17)
(5.551115123125783e-17 -8.673617379884035e-19 -2.775557561562891e-17)
(5.551115123125783e-17 0 -1.387778780781446e-17)
(0 0 2.775557561562891e-17)
(0 0 -1.387778780781446e-17)
(5.551115123125783e-17 -8.673617379884035e-19 -2.775557561562891e-17)
(2.775557561562891e-17 0 0)
(2.775557561562891e-17 -8.673617379884035e-19 0)
(-5.551115123125783e-17 -8.673617379884035e-19 0)
(5.551115123125783e-17 -8.673617379884035e-19 0)
(-2.775557561562891e-17 -8.673617379884035e-19 0)
(-2.775557561562891e-17 0 0)
(8.326672684688674e-17 0 1.387778780781446e-17)
(-2.775557561562891e-17 0 0)
(2.775557561562891e-17 0 0)
(-5.551115123125783e-17 8.673617379884035e-19 0)
(2.775557561562891e-17 -8.673617379884035e-19 0)
(2.775557561562891e-17 0 -1.387778780781446e-17)
(0 -8.673617379884035e-19 -1.387778780781446e-17)
(-2.775557561562891e-17 0 1.387778780781446e-17)
(2.775557561562891e-17 -1.734723475976807e-18 0)
(2.775557561562891e-17 -8.673617379884035e-19 -1.387778780781446e-17)
(2.775557561562891e-17 0 -2.775557561562891e-17)
(0 -1.734723475976807e-18 0)
(2.775557561562891e-17 8.673617379884035e-19 -2.775557561562891e-17)
(0 8.673617379884035e-19 0)
(0 8.673617379884035e-19 0)
(0 0 0)
(0 0 0)
(0 0 -6.938893903907228e-18)
(2.775557561562891e-17 -8.673617379884035e-19 -6.938893903907228e-18)
(2.775557561562891e-17 -8.673617379884035e-19 -6.938893903907228e-18)
(-2.775557561562891e-17 1.734723475976807e-18 0)
(0 0 -1.387778780781446e-17)
(1.387778780781446e-17 0 -1.387778780781446e-17)
(1.387778780781446e-17 0 0)
(0 -8.673617379884035e-19 -1.387778780781446e-17)
(1.387778780781446e-17 -8.673617379884035e-19 0)
(2.775557561562891e-17 -1.734723475976807e-18 0)
(0 0 1.387778780781446e-17)
(0 -8.673617379884035e-19 -6.938893903907228e-18)
(-1.387778780781446e-17 8.673617379884035e-19 0)
(-2.775557561562891e-17 8.673617379884035e-19 1.387778780781446e-17)
(0 -8.673617379884035e-19 -6.938893903907228e-18)
(1.387778780781446e-17 0 -1.387778780781446e-17)
(0 0 -6.938893903907228e-18)
(2.775557561562891e-17 -8.673617379884035e-19 -1.387778780781446e-17)
(0 0 -6.938893903907228e-18)
(0 -8.673617379884035e-19 0)
(-1.387778780781446e-17 8.673617379884035e-19 0)
(0 8.673617379884035e-19 0)
(6.938893903907228e-18 -8.673617379884035e-19 -6.938893903907228e-18)
(1.387778780781446e-17 -8.673617379884035e-19 0)
(0 8.673617379884035e-19 -6.938893903907228e-18)
(0 0 0)
(0 -8.673617379884035e-19 0)
(0 -1.734723475976807e-18 0)
(6.938893903907228e-18 -8.673617379884035e-19 -6.938893903907228e-18)
(6.938893903907228e-18 0 0)
(6.938893903907228e-18 0 0)
(0 -8.673617379884035e-19 0)
(0 0 0)
(6.938893903907228e-18 -8.673617379884035e-19 -1.387778780781446e-17)
(-1.040834085586084e-17 0 0)
(-3.469446951953614e-18 0 0)
(0 0 -3.469446951953614e-18)
(-3.469446951953614e-18 -8.673617379884035e-19 0)
(0 0 3.469446951953614e-18)
(3.469446951953614e-18 -8.673617379884035e-19 -3.469446951953614e-18)
(3.469446951953614e-18 0 0)
(0 0 -3.469446951953614e-18)
(0 0 0)
(-1.734723475976807e-18 0 -6.938893903907228e-18)
(0 0 -6.938893903907228e-18)
(0 0 -3.469446951953614e-18)
(-1.734723475976807e-18 8.673617379884035e-19 0)
(1.734723475976807e-18 0 -3.469446951953614e-18)
(8.673617379884035e-19 0 0)
(0 0 0)
(8.673617379884035e-19 -8.673617379884035e-19 -1.734723475976807e-18)
(4.336808689942018e-19 -8.673617379884035e-19 0)
(0 8.673617379884035e-19 0)
(4.336808689942018e-19 0 0)
(0 0 -1.734723475976807e-18)
(0 1.734723475976807e-18 8.673617379884035e-19)
(1.084202172485504e-19 0 -8.673617379884035e-19)
(4.065758146820642e-20 -8.673617379884035e-19 -4.336808689942018e-19)
(0 8.673617379884035e-19 4.336808689942018e-19)
(0 0 0)
(2.220446049250313e-16 0 0)
(1.110223024625157e-16 0 0)
(1.110223024625157e-16 -8.673617379884035e-19 -1.387778780781446e-17)
(-1.110223024625157e-16 -8.673617379884035e-19 -1.387778780781446e-17)
(2.220446049250313e-16 -8.673617379884035e-19 0)
(3.33066907387547e-16 0 0)
(-1.110223024625157e-16 -8.673617379884035e-19 -1.387778780781446e-17)
(-1.110223024625157e-16 0 0)
(1.110223024625157e-16 0 -1.387778780781446e-17)
(0 8.673617379884035e-19 0)
(1.110223024625157e-16 -8.673617379884035e-19 0)
(1.110223024625157e-16 -8.673617379884035e-19 0)
(0 8.673617379884035e-19 0)
(0 0 1.387778780781446e-17)
(0 0 -1.387778780781446e-17)
(1.110223024625157e-16 0 0)
(1.110223024625157e-16 -8.673617379884035e-19 0)
(-1.110223024625157e-16 0 1.387778780781446e-17)
(0 0 0)
(1.110223024625157e-16 8.673617379884035e-19 0)
(-1.110223024625157e-16 -8.673617379884035e-19 0)
(1.110223024625157e-16 -8.673617379884035e-19 0)
(1.110223024625157e-16 -8.673617379884035e-19 -2.775557561562891e-17)
(1.110223024625157e-16 -8.673617379884035e-19 0)
(0 0 1.387778780781446e-17)
(0 8.673617379884035e-19 0)
(2.220446049250313e-16 -8.673617379884035e-19 -1.387778780781446e-17)
(-3.33066907387547e-16 0 0)
(0 0 -1.387778780781446e-17)
(1.110223024625157e-16 0 -1.387778780781446e-17)
(1.110223024625157e-16 0 0)
(1.110223024625157e-16 -8.673617379884035e-19 0)
(0 0 -1.387778780781446e-17)
(1.110223024625157e-16 0 0)
(1.110223024625157e-16 -1.734723475976807e-18 0)
(-1.110223024625157e-16 0 -1.387778780781446e-17)
(1.110223024625157e-16 0 -1.387778780781446e-17)
(0 8.673617379884035e-19 0)
(1.110223024625157e-16 0 0)
(0 -8.673617379884035e-19 0)
(-1.110223024625157e-16 -8.673617379884035e-19 -2.775557561562891e-17)
(0 0 0)
(0 8.673617379884035e-19 1.387778780781446e-17)
(-1.110223024625157e-16 -1.734723475976807e-18 -1.387778780781446e-17)
(0 0 -1.387778780781446e-17)
(0 8.673617379884035e-19 -1.387778780781446e-17)
(0 -1.734723475976807e-18 1.387778780781446e-17)
(0 -1.734723475976807e-18 1.387778780781446e-17)
(-1.110223024625157e-16 0 0)
(0 0 0)
(1.110223024625157e-16 -1.734723475976807e-18 0)
(-1.110223024625157e-16 0 0)
(-1.110223024625157e-16 8.673617379884035e-19 -1.387778780781446e-17)
(1.110223024625157e-16 0 0)
(0 8.673617379884035e-19 0)
(0 8.673617379884035e-19 0)
(0 0 0)
(2.220446049250313e-16 -8.673617379884035e-19 -1.387778780781446e-17)
(0 -8.673617379884035e-19 1.387778780781446e-17)
(-1.110223024625157e-16 -8.673617379884035e-19 -1.387778780781446e-17)
(0 0 1.387778780781446e-17)
(1.110223024625157e-16 -8.673617379884035e-19 0)
(0 0 1.387778780781446e-17)
(0 0 -1.387778780781446e-17)
(-5.551115123125783e-17 8.673617379884035e-19 1.387778780781446e-17)
(1.110223024625157e-16 0 0)
(0 0 0)
(5.551115123125783e-17 -8.673617379884035e-19 0)
(5.551115123125783e-17 -8.673617379884035e-19 0)
(5.551115123125783e-17 8.673617379884035e-19 0)
(5.551115123125783e-17 0 0)
(5.551115123125783e-17 0 0)
(5.551115123125783e-17 8.673617379884035e-19 0)
(1.110223024625157e-16 0 -1.387778780781446e-17)
(5.551115123125783e-17 0 0)
(5.551115123125783e-17 -8.673617379884035e-19 0)
(-5.551115123125783e-17 -8.673617379884035e-19 1.387778780781446e-17)
(0 -8.673617379884035e-19 -2.775557561562891e-17)
(-5.551115123125783e-17 0 0)
(5.551115123125783e-17 -8.673617379884035e-19 -1.387778780781446e-17)
(0 8.673617379884035e-19 0)
(5.551115123125783e-17 0 -1.387778780781446e-17)
(5.551115123125783e-17 0 0)
(5.551115123125783e-17 -8.673617379884035e-19 -1.387778780781446e-17)
(5.551115123125783e-17 0 -4.163336342344337e-17)
(0 8.673617379884035e-19 0)
(5.551115123125783e-17 0 0)
(5.551115123125783e-17 -8.673617379884035e-19 -2.775557561562891e-17)
(0 -2.602085213965211e-18 -2.775557561562891e-17)
(5.551115123125783e-17 0 0)
(5.551115123125783e-17 0 -6.938893903907228e-18)
(5.551115123125783e-17 -8.673617379884035e-19 6.938893903907228e-18)
(-5.551115123125783e-17 8.673617379884035e-19 -6.938893903907228e-18)
(5.551115123125783e-17 -8.673617379884035e-19 0)
(0 -1.734723475976807e-18 6.938893903907228e-18)
(0 0 0)
(0 0 6.938893903907228e-18)
(-2.775557561562891e-17 8.673617379884035e-19 1.387778780781446e-17)
(0 8.673617379884035e-19 0)
(-2.775557561562891e-17 0 6.938893903907228e-18)
(0 0 0)
(0 8.673617379884035e-19 0)
(0 0 -6.938893903907228e-18)
(-2.775557561562891e-17 -8.673617379884035e-19 6.938893903907228e-18)
(0 0 0)
(0 8.673617379884035e-19 -6.938893903907228e-18)
(0 0 0)
(0 0 6.938893903907228e-18)
(-5.551115123125783e-17 8.673617379884035e-19 -1.387778780781446e-17)
(-2.775557561562891e-17 0 -1.387778780781446e-17)
(2.775557561562891e-17 0 6.938893903907228e-18)
(-2.775557561562891e-17 -1.734723475976807e-18 0)
(0 8.673617379884035e-19 0)
(2.775557561562891e-17 0 0)
(0 0 6.938893903907228e-18)
(0 -8.673617379884035e-19 6.938893903907228e-18)
(2.775557561562891e-17 8.673617379884035e-19 0)
(5.551115123125783e-17 0 0)
(2.775557561562891e-17 8.673617379884035e-19 -6.938893903907228e-18)
(-2.775557561562891e-17 0 0)
(5.551115123125783e-17 -1.734723475976807e-18 6.938893903907228e-18)
(2.775557561562891e-17 0 0)
(0 0 0)
(1.387778780781446e-17 -1.734723475976807e-18 0)
(-1.387778780781446e-17 -8.673617379884035e-19 0)
(1.387778780781446e-17 0 6.938893903907228e-18)
(-1.387778780781446e-17 0 0)
(1.387778780781446e-17 0 6.938893903907228e-18)
(-1.387778780781446e-17 -8.673617379884035e-19 0)
(0 8.673617379884035e-19 0)
(1.387778780781446e-17 -8.673617379884035e-19 6.938893903907228e-18)
(0 -8.673617379884035e-19 -6.938893903907228e-18)
(1.387778780781446e-17 -1.734723475976807e-18 6.938893903907228e-18)
(1.387778780781446e-17 -1.734723475976807e-18 6.938893903907228e-18)
(1.387778780781446e-17 8.673617379884035e-19 6.938893903907228e-18)
(0 0 0)
(0 -1.734723475976807e-18 6.938893903907228e-18)
(0 0 -6.938893903907228e-18)
(0 8.673617379884035e-19 -1.387778780781446e-17)
(0 0 0)
(1.387778780781446e-17 0 0)
(2.775557561562891e-17 -1.734723475976807e-18 6.938893903907228e-18)
(0 0 6.938893903907228e-18)
(-1.387778780781446e-17 8.673617379884035e-19 0)
(0 -1.734723475976807e-18 0)
(0 0 -6.938893903907228e-18)
(6.938893903907228e-18 -8.673617379884035e-19 1.387778780781446e-17)
(6.938893903907228e-18 -8.673617379884035e-19 0)
(0 -8.673617379884035e-19 3.469446951953614e-18)
(2.081668171172169e-17 -1.734723475976807e-18 3.469446951953614e-18)
(-6.938893903907228e-18 8.673617379884035e-19 -6.938893903907228e-18)
(0 -8.673617379884035e-19 0)
(6.938893903907228e-18 8.673617379884035e-19 0)
(0 0 0)
(0 0 0)
(3.469446951953614e-18 -8.673617379884035e-19 0)
(-6.938893903907228e-18 0 -6.938893903907228e-18)
(3.469446951953614e-18 -1.734723475976807e-18 6.938893903907228e-18)
(3.469446951953614e-18 0 0)
(3.469446951953614e-18 8.673617379884035e-19 3.469446951953614e-18)
(3.469446951953614e-18 0 0)
(3.469446951953614e-18 0 3.469446951953614e-18)
(-6.938893903907228e-18 0 -6.938893903907228e-18)
(3.469446951953614e-18 -8.673617379884035e-19 3.469446951953614e-18)
(0 0 -6.938893903907228e-18)
(1.734723475976807e-18 -8.673617379884035e-19 6.938893903907228e-18)
(1.734723475976807e-18 0 0)
(0 -8.673617379884035e-19 -3.469446951953614e-18)
(0 0 1.734723475976807e-18)
(0 0 0)
(0 8.673617379884035e-19 0)
(8.673617379884035e-19 -8.673617379884035e-19 1.734723475976807e-18)
(0 8.673617379884035e-19 1.734723475976807e-18)
(0 8.673617379884035e-19 -3.469446951953614e-18)
(0 -8.673617379884035e-19 0)
(2.168404344971009e-19 -8.673617379884035e-19 8.673617379884035e-19)
(2.168404344971009e-19 0 0)
(0 -8.673617379884035e-19 0)
(0 -8.673617379884035e-19 0)
(1.355252715606881e-20 0 0)
(0 0 1.387778780781446e-17)
(0 0 0)
(0 8.673617379884035e-19 0)
(2.220446049250313e-16 -1.734723475976807e-18 -2.775557561562891e-17)
(2.220446049250313e-16 -8.673617379884035e-19 -6.938893903907228e-18)
(-1.110223024625157e-16 0 1.387778780781446e-17)
(1.110223024625157e-16 0 6.938893903907228e-18)
(-2.220446049250313e-16 1.734723475976807e-18 0)
(-1.110223024625157e-16 -1.734723475976807e-18 1.387778780781446e-17)
(3.33066907387547e-16 -8.673617379884035e-19 -1.387778780781446e-17)
(2.220446049250313e-16 -8.673617379884035e-19 -1.387778780781446e-17)
(1.110223024625157e-16 0 0)
(0 0 -6.938893903907228e-18)
(1.110223024625157e-16 0 0)
(0 -1.734723475976807e-18 0)
(0 0 -6.938893903907228e-18)
(0 0 1.387778780781446e-17)
(1.110223024625157e-16 0 -6.938893903907228e-18)
(1.110223024625157e-16 -8.673617379884035e-19 -2.081668171172169e-17)
(-1.110223024625157e-16 0 1.387778780781446e-17)
(1.110223024625157e-16 -8.673617379884035e-19 0)
(1.110223024625157e-16 -8.673617379884035e-19 0)
(1.110223024625157e-16 0 0)
(2.220446049250313e-16 -8.673617379884035e-19 -1.387778780781446e-17)
(2.220446049250313e-16 -8.673617379884035e-19 0)
(2.220446049250313e-16 -8.673617379884035e-19 3.469446951953614e-18)
(0 0 -3.469446951953614e-18)
(1.110223024625157e-16 -1.734723475976807e-18 0)
(1.110223024625157e-16 0 0)
(-1.110223024625157e-16 0 0)
(1.110223024625157e-16 0 0)
(0 0 1.040834085586084e-17)
(1.110223024625157e-16 -1.734723475976807e-18 -3.469446951953614e-18)
(2.220446049250313e-16 0 -3.469446951953614e-18)
(-1.110223024625157e-16 0 0)
(0 0 6.938893903907228e-18)
(-1.110223024625157e-16 8.673617379884035e-19 -3.469446951953614e-18)
(2.220446049250313e-16 8.673617379884035e-19 -6.938893903907228e-18)
(0 8.673617379884035e-19 1.734723475976807e-18)
(-1.110223024625157e-16 0 3.469446951953614e-18)
(0 -8.673617379884035e-19 -1.734723475976807e-18)
(1.110223024625157e-16 0 -8.673617379884035e-18)
(0 0 -1.734723475976807e-18)
(0 0 0)
(0 -8.673617379884035e-19 -2.602085213965211e-18)
(1.110223024625157e-16 -8.673617379884035e-19 -4.336808689942018e-19)
(0 0 0)
(-1.110223024625157e-16 0 -2.168404344971009e-19)
(-1.110223024625157e-16 8.673617379884035e-19 1.355252715606881e-20)
(0 8.673617379884035e-19 0)
(0 0 0)
(0 8.673617379884035e-19 0)
(1.110223024625157e-16 0 -8.673617379884035e-19)
(0 -8.673617379884035e-19 8.673617379884035e-19)
(0 8.673617379884035e-19 0)
(0 -8.673617379884035e-19 -5.204170427930421e-18)
(0 -8.673617379884035e-19 3.469446951953614e-18)
(1.110223024625157e-16 0 1.734723475976807e-18)
(0 0 -6.938893903907228e-18)
(0 0 0)
(1.110223024625157e-16 0 0)
(0 -1.734723475976807e-18 1.734723475976807e-18)
(1.110223024625157e-16 -8.673617379884035e-19 0)
(0 0 -3.469446951953614e-18)
(-5.551115123125783e-17 -8.673617379884035e-19 0)
(1.110223024625157e-16 -1.734723475976807e-18 3.469446951953614e-18)
(0 0 0)
(5.551115123125783e-17 0 6.938893903907228e-18)
(1.110223024625157e-16 -1.734723475976807e-18 6.938893903907228e-18)
(-5.551115123125783e-17 -8.673617379884035e-19 3.469446951953614e-18)
(5.551115123125783e-17 8.673617379884035e-19 0)
(1.110223024625157e-16 0 3.469446951953614e-18)
(0 -8.673617379884035e-19 3.469446951953614e-18)
(0 8.673617379884035e-19 3.469446951953614e-18)
(5.551115123125783e-17 0 0)
(0 0 3.469446951953614e-18)
(5.551115123125783e-17 8.673617379884035e-19 3.469446951953614e-18)
(-1.110223024625157e-16 0 0)
(0 0 0)
(1.110223024625157e-16 -8.673617379884035e-19 0)
(-5.551115123125783e-17 0 0)
(-5.551115123125783e-17 0 0)
(0 -8.673617379884035e-19 6.938893903907228e-18)
(1.110223024625157e-16 -8.673617379884035e-19 0)
(0 0 0)
(0 8.673617379884035e-19 0)
(0 0 6.938893903907228e-18)
(0 0 1.387778780781446e-17)
(0 0 0)
(-1.110223024625157e-16 8.673617379884035e-19 0)
)
;
    }
)

// ************************************************************************* //
