/*--------------------------------*- C++ -*----------------------------------*\
| =========                 |                                                 |
| \\      /  F ield         | OpenFOAM: The Open Source CFD Toolbox           |
|  \\    /   O peration     | Version:  v1806                                 |
|   \\  /    A nd           | Web:      www.OpenFOAM.com                      |
|    \\/     M anipulation  |                                                 |
\*---------------------------------------------------------------------------*/
FoamFile
{
    version     2.0;
    format      ascii;
    class       dictionary;
    location    "constant";
    object      parcelInjectionProperties;
}
//#include "../caseConditions"
// * * * * * * * * * * * * * * * * * * * * * * * * * * * * * * * * * * * * * //
// (x y z) (u v w) d rho mDot T Cp (Y0..Y2) (Yg0..YgN) (Yl0..YlN) (Ys0..YsN)
(
    (-0.76 -0.0076 -0.130) 
    (-0.76 -0.0076 -0.128) 
    (-0.76 -0.0076 -0.126) 
    (-0.76 -0.0076 -0.124) 
    (-0.76 -0.0076 -0.122) 
    (-0.76 -0.0076 -0.120) 
    (-0.76 -0.0076 -0.118) 
    (-0.76 -0.0076 -0.116) 
    (-0.76 -0.0076 -0.114) 
    (-0.76 -0.0076 -0.112) 
    (-0.76 -0.0076 -0.110) 
    (-0.76 -0.0076 -0.108) 
    (-0.76 -0.0076 -0.106) 
    (-0.76 -0.0076 -0.104) 
    (-0.76 -0.0076 -0.102) 
    (-0.76 -0.0076 -0.100) 
    (-0.76 -0.0076 -0.098) 
    (-0.76 -0.0076 -0.096) 
    (-0.76 -0.0076 -0.094) 
    (-0.76 -0.0076 -0.092) 
    (-0.76 -0.0076 -0.090) 
    (-0.76 -0.0076 -0.088) 
    (-0.76 -0.0076 -0.086) 
    (-0.76 -0.0076 -0.084) 
    (-0.76 -0.0076 -0.082) 
    (-0.76 -0.0076 -0.080) 
    (-0.76 -0.0076 -0.078) 
    (-0.76 -0.0076 -0.076) 
    (-0.76 -0.0076 -0.074) 
    (-0.76 -0.0076 -0.072) 
    (-0.76 -0.0076 -0.070) 
    (-0.76 -0.0076 -0.068) 
    (-0.76 -0.0076 -0.066) 
    (-0.76 -0.0076 -0.064) 
    (-0.76 -0.0076 -0.062) 
    (-0.76 -0.0076 -0.060) 
    (-0.76 -0.0076 -0.058) 
    (-0.76 -0.0076 -0.056) 
    (-0.76 -0.0076 -0.054) 
    (-0.76 -0.0076 -0.052) 
    (-0.76 -0.0076 -0.050) 
    (-0.76 -0.0076 -0.048) 
    (-0.76 -0.0076 -0.046) 
    (-0.76 -0.0076 -0.044) 
    (-0.76 -0.0076 -0.042) 
    (-0.76 -0.0076 -0.040) 
    (-0.76 -0.0076 -0.038) 
    (-0.76 -0.0076 -0.036) 
    (-0.76 -0.0076 -0.034) 
    (-0.76 -0.0076 -0.032) 
    (-0.76 -0.0076 -0.030) 
    (-0.76 -0.0076 -0.028) 
    (-0.76 -0.0076 -0.026) 
    (-0.76 -0.0076 -0.024) 
    (-0.76 -0.0076 -0.022) 
    (-0.76 -0.0076 -0.020) 
    (-0.76 -0.0076 -0.018) 
    (-0.76 -0.0076 -0.016) 
    (-0.76 -0.0076 -0.014) 
    (-0.76 -0.0076 -0.012) 
    (-0.76 -0.0076 -0.010) 
    (-0.76 -0.0076 -0.008) 
    (-0.76 -0.0076 -0.006) 
    (-0.76 -0.0076 -0.004) 
    (-0.76 -0.0076 -0.002) 
    (-0.76 -0.0076     0) 
    (-0.76 -0.0076 0.100) 
    (-0.76 -0.0076 0.098) 
    (-0.76 -0.0076 0.096) 
    (-0.76 -0.0076 0.094) 
    (-0.76 -0.0076 0.092) 
    (-0.76 -0.0076 0.090) 
    (-0.76 -0.0076 0.088) 
    (-0.76 -0.0076 0.086) 
    (-0.76 -0.0076 0.084) 
    (-0.76 -0.0076 0.082) 
    (-0.76 -0.0076 0.080) 
    (-0.76 -0.0076 0.078) 
    (-0.76 -0.0076 0.076) 
    (-0.76 -0.0076 0.074) 
    (-0.76 -0.0076 0.072) 
    (-0.76 -0.0076 0.070) 
    (-0.76 -0.0076 0.068) 
    (-0.76 -0.0076 0.066) 
    (-0.76 -0.0076 0.064) 
    (-0.76 -0.0076 0.062) 
    (-0.76 -0.0076 0.060) 
    (-0.76 -0.0076 0.058) 
    (-0.76 -0.0076 0.056) 
    (-0.76 -0.0076 0.054) 
    (-0.76 -0.0076 0.052) 
    (-0.76 -0.0076 0.050) 
    (-0.76 -0.0076 0.048) 
    (-0.76 -0.0076 0.046) 
    (-0.76 -0.0076 0.044) 
    (-0.76 -0.0076 0.042) 
    (-0.76 -0.0076 0.040) 
    (-0.76 -0.0076 0.038) 
    (-0.76 -0.0076 0.036) 
    (-0.76 -0.0076 0.034) 
    (-0.76 -0.0076 0.032) 
    (-0.76 -0.0076 0.030) 
    (-0.76 -0.0076 0.028) 
    (-0.76 -0.0076 0.026) 
    (-0.76 -0.0076 0.024) 
    (-0.76 -0.0076 0.022) 
    (-0.76 -0.0076 0.020) 
    (-0.76 -0.0076 0.018) 
    (-0.76 -0.0076 0.016) 
    (-0.76 -0.0076 0.014) 
    (-0.76 -0.0076 0.012) 
    (-0.76 -0.0076 0.010) 
    (-0.76 -0.0076 0.008) 
    (-0.76 -0.0076 0.006) 
    (-0.76 -0.0076 0.004) 
    (-0.76 -0.0076 0.002) 
);

subDict
{
    a	1;
}

#include "../caseConditions"

// ************************************************************************* //
